Version 4
SHEET 1 880 852
SYMBOL Beaglebone 480 64 R0
SYMATTR InstName X1
