Version 4
SHEET 1 4864 680
WIRE 1616 -2592 1408 -2592
WIRE 4800 -2560 4768 -2560
WIRE 1616 -2544 1616 -2592
WIRE 1680 -2544 1616 -2544
WIRE 2096 -2544 2064 -2544
WIRE 2320 -2544 2288 -2544
WIRE 2688 -2544 2656 -2544
WIRE 3200 -2544 3152 -2544
WIRE 3392 -2544 3344 -2544
WIRE 3760 -2544 3712 -2544
WIRE 3968 -2544 3936 -2544
WIRE 4368 -2544 4336 -2544
WIRE 1680 -2496 1392 -2496
WIRE 2096 -2496 2064 -2496
WIRE 2320 -2496 2288 -2496
WIRE 2688 -2496 2656 -2496
WIRE 3200 -2496 3152 -2496
WIRE 3392 -2496 3344 -2496
WIRE 3760 -2496 3696 -2496
WIRE 3968 -2496 3936 -2496
WIRE 4368 -2496 4336 -2496
WIRE 4816 -2496 4752 -2496
WIRE 1680 -2448 1584 -2448
WIRE 2096 -2448 2064 -2448
WIRE 2320 -2448 2288 -2448
WIRE 2688 -2448 2656 -2448
WIRE 3200 -2448 3152 -2448
WIRE 3760 -2448 3696 -2448
WIRE 3968 -2448 3936 -2448
WIRE 4368 -2448 4336 -2448
WIRE 1680 -2400 1584 -2400
WIRE 2096 -2400 2064 -2400
WIRE 2320 -2400 2288 -2400
WIRE 2688 -2400 2656 -2400
WIRE 3200 -2400 3152 -2400
WIRE 3760 -2400 3696 -2400
WIRE 3968 -2400 3936 -2400
WIRE 4368 -2400 4336 -2400
WIRE 1680 -2352 1584 -2352
WIRE 2096 -2352 2064 -2352
WIRE 2320 -2352 2288 -2352
WIRE 2688 -2352 2656 -2352
WIRE 3200 -2352 3152 -2352
WIRE 3760 -2352 3696 -2352
WIRE 3968 -2352 3936 -2352
WIRE 4368 -2352 4336 -2352
WIRE 1680 -2304 1584 -2304
WIRE 2096 -2304 2064 -2304
WIRE 2320 -2304 2288 -2304
WIRE 2688 -2304 2656 -2304
WIRE 3200 -2304 3152 -2304
WIRE 3760 -2304 3696 -2304
WIRE 3968 -2304 3936 -2304
WIRE 4368 -2304 4336 -2304
WIRE 1680 -2256 1584 -2256
WIRE 2096 -2256 2064 -2256
WIRE 2688 -2256 2656 -2256
WIRE 3200 -2256 3152 -2256
WIRE 3760 -2256 3696 -2256
WIRE 3968 -2256 3936 -2256
WIRE 4368 -2256 4336 -2256
WIRE 1680 -2208 1584 -2208
WIRE 2096 -2208 2064 -2208
WIRE 3760 -2208 3696 -2208
WIRE 3968 -2208 3936 -2208
WIRE 1680 -2160 1600 -2160
WIRE 2096 -2160 2064 -2160
WIRE 3760 -2160 3728 -2160
WIRE 3968 -2160 3936 -2160
WIRE 3728 -2144 3728 -2160
WIRE 3728 -2144 3696 -2144
WIRE 1680 -2112 1584 -2112
WIRE 2096 -2112 2064 -2112
WIRE 3760 -2112 3696 -2112
WIRE 3968 -2112 3936 -2112
WIRE 1840 -2064 1792 -2064
WIRE 2096 -2064 2064 -2064
WIRE 3760 -2064 3696 -2064
WIRE 3968 -2064 3936 -2064
WIRE 3936 -2048 3936 -2064
WIRE 1840 -2016 1792 -2016
WIRE 2096 -2016 2064 -2016
WIRE 3760 -2016 3696 -2016
WIRE 3968 -2016 3936 -2016
WIRE 1840 -1968 1792 -1968
WIRE 2096 -1968 2064 -1968
WIRE 3760 -1968 3696 -1968
WIRE 3968 -1968 3936 -1968
WIRE 1840 -1920 1792 -1920
WIRE 2096 -1920 2064 -1920
WIRE 1840 -1872 1792 -1872
WIRE 2096 -1872 2064 -1872
WIRE 1840 -1824 1792 -1824
WIRE 2096 -1824 2064 -1824
WIRE 1840 -1776 1792 -1776
WIRE 2096 -1776 2064 -1776
WIRE 1840 -1728 1792 -1728
WIRE 2096 -1728 2064 -1728
WIRE 2096 -1680 2064 -1680
FLAG 1680 -2400 VDD_3.3V_2
IOPIN 1680 -2400 Out
FLAG 1680 -2448 VDD_3.3V_1
IOPIN 1680 -2448 Out
FLAG 1680 -2496 VDD_5V_2
IOPIN 1680 -2496 Out
FLAG 1680 -2544 VDD_5V_1
IOPIN 1680 -2544 BiDir
FLAG 1680 -2352 SYS_5V_1
IOPIN 1680 -2352 Out
FLAG 1680 -2304 SYS_5V_2
IOPIN 1680 -2304 Out
FLAG 1680 -2256 PWR_BUT
IOPIN 1680 -2256 Out
FLAG 1680 -2208 SYS_RESET
IOPIN 1680 -2208 Out
FLAG 1680 -2160 VDD_ADC
IOPIN 1680 -2160 Out
FLAG 1680 -2112 GND_ADCC
IOPIN 1680 -2112 Out
FLAG 2096 -2544 GPIO_20
IOPIN 2096 -2544 Out
FLAG 2096 -2496 GPIO_26
IOPIN 2096 -2496 Out
FLAG 2096 -2448 GPIO_27
IOPIN 2096 -2448 Out
FLAG 2096 -2400 GPIO_48
IOPIN 2096 -2400 Out
FLAG 2096 -2352 GPIO_60
IOPIN 2096 -2352 Out
FLAG 2096 -2304 GPIO_49
IOPIN 2096 -2304 Out
FLAG 2096 -2256 GPIO_117
IOPIN 2096 -2256 Out
FLAG 2096 -2208 GPIO_115
IOPIN 2096 -2208 Out
FLAG 2096 -2160 GPIO_112
IOPIN 2096 -2160 Out
FLAG 2096 -2112 GPIO_66
IOPIN 2096 -2112 Out
FLAG 2096 -2064 GPIO_67
IOPIN 2096 -2064 Out
FLAG 2096 -2016 GPIO_69
IOPIN 2096 -2016 Out
FLAG 2096 -1968 GPIO_68
IOPIN 2096 -1968 Out
FLAG 2096 -1920 GPIO_45
IOPIN 2096 -1920 Out
FLAG 2096 -1872 GPIO_44
IOPIN 2096 -1872 Out
FLAG 2096 -1824 GPIO_47
IOPIN 2096 -1824 Out
FLAG 2096 -1776 GPIO_46
IOPIN 2096 -1776 Out
FLAG 2096 -1728 GPIO_65
IOPIN 2096 -1728 Out
FLAG 2096 -1680 GPIO_61
IOPIN 2096 -1680 Out
FLAG 2320 -2544 UART4_RXD
IOPIN 2320 -2544 BiDir
FLAG 2320 -2496 UART4_TXD
IOPIN 2320 -2496 BiDir
FLAG 2320 -2448 UART1_RXD
IOPIN 2320 -2448 BiDir
FLAG 2320 -2400 UART1_TXD
IOPIN 2320 -2400 BiDir
FLAG 2320 -2352 SPIO_CSO
IOPIN 2320 -2352 BiDir
FLAG 2320 -2304 SPIO_D1
IOPIN 2320 -2304 BiDir
FLAG 2688 -2544 EHRPWM1A
IOPIN 2688 -2544 Out
FLAG 2688 -2496 EHRPWM1B
IOPIN 2688 -2496 Out
FLAG 2688 -2448 EHRPWM2A
IOPIN 2688 -2448 Out
FLAG 2688 -2400 EHRPWM2B
IOPIN 2688 -2400 Out
FLAG 2688 -2352 SPIO_DO
IOPIN 2688 -2352 Out
FLAG 2688 -2304 SPIO_SLCK
IOPIN 2688 -2304 Out
FLAG 2688 -2256 ECAPWM0
IOPIN 2688 -2256 Out
FLAG 3152 -2544 AIN0
IOPIN 3152 -2544 In
FLAG 3152 -2496 AIN1
IOPIN 3152 -2496 In
FLAG 3152 -2448 AIN2
IOPIN 3152 -2448 In
FLAG 3152 -2400 AIN3
IOPIN 3152 -2400 In
FLAG 3152 -2352 AIN4
IOPIN 3152 -2352 In
FLAG 3152 -2304 AIN5
IOPIN 3152 -2304 In
FLAG 3152 -2256 AIN6
IOPIN 3152 -2256 In
FLAG 3392 -2544 I2C2_SCL
IOPIN 3392 -2544 BiDir
FLAG 3392 -2496 I2C2_SDA
IOPIN 3392 -2496 BiDir
FLAG 3760 -2544 SP11_DO
IOPIN 3760 -2544 Out
FLAG 3760 -2496 SP11_CSO
IOPIN 3760 -2496 Out
FLAG 3760 -2448 SP11_SCLK
IOPIN 3760 -2448 Out
FLAG 3760 -2400 MMC1_DAT6
IOPIN 3760 -2400 Out
FLAG 3760 -2352 MMC1_DAT2
IOPIN 3760 -2352 Out
FLAG 3760 -2304 MMC1_DAT7
IOPIN 3760 -2304 Out
FLAG 3760 -2256 MMC1_DAT3
IOPIN 3760 -2256 Out
FLAG 3760 -2208 MMC1_CMD
IOPIN 3760 -2208 Out
FLAG 3760 -2160 MMC1_DAT5
IOPIN 3760 -2160 Out
FLAG 3760 -2112 MMC1_DAT1
IOPIN 3760 -2112 Out
FLAG 3760 -2064 MMC1_CLK
IOPIN 3760 -2064 Out
FLAG 3760 -2016 MMC1_DAT4
IOPIN 3760 -2016 Out
FLAG 3760 -1968 MMC1_DAT0
IOPIN 3760 -1968 Out
FLAG 3968 -2544 LCD_VSYNC
IOPIN 3968 -2544 Out
FLAG 3968 -2496 LCD_HSYNC
IOPIN 3968 -2496 Out
FLAG 3968 -2448 LCD_PCLK
IOPIN 3968 -2448 Out
FLAG 3968 -2400 LCD_AC_BIAS
IOPIN 3968 -2400 Out
FLAG 3968 -2352 LCD_DATA14
IOPIN 3968 -2352 Out
FLAG 3968 -2304 LCD_DATA15
IOPIN 3968 -2304 Out
FLAG 3968 -2256 LCD_DATA13
IOPIN 3968 -2256 Out
FLAG 3968 -2208 LCD_DATA11
IOPIN 3968 -2208 Out
FLAG 3968 -2160 LCD_DATA12
IOPIN 3968 -2160 Out
FLAG 3968 -2112 LCD_DATA10
IOPIN 3968 -2112 Out
FLAG 3968 -2064 LCD_DATA8
IOPIN 3968 -2064 Out
FLAG 3968 -2016 LCD_DATA9
IOPIN 3968 -2016 Out
FLAG 3968 -1968 LCD_DATA7
IOPIN 3968 -1968 Out
FLAG 4336 -2544 LCD_DATA6
IOPIN 4336 -2544 In
FLAG 4336 -2496 LCD_DATA5
IOPIN 4336 -2496 In
FLAG 4336 -2448 LCD_DATA4
IOPIN 4336 -2448 In
FLAG 4336 -2400 LCD_DATA3
IOPIN 4336 -2400 In
FLAG 4336 -2352 LCD_DATA2
IOPIN 4336 -2352 In
FLAG 4336 -2304 LCD_DATA1
IOPIN 4336 -2304 In
FLAG 4336 -2256 LCD_DATA0
IOPIN 4336 -2256 In
FLAG 4768 -2560 5V_Input
IOPIN 4768 -2560 In
FLAG 1408 -2592 0
FLAG 1584 -2448 0
FLAG 1584 -2400 0
FLAG 1584 -2352 0
FLAG 1584 -2304 0
FLAG 1584 -2256 0
FLAG 1584 -2208 0
FLAG 1600 -2160 0
FLAG 1584 -2112 0
FLAG 2064 -2544 0
FLAG 2064 -2496 0
FLAG 2064 -2448 0
FLAG 2064 -2400 0
FLAG 2064 -2352 0
FLAG 2064 -2304 0
FLAG 2064 -2256 0
FLAG 2064 -2208 0
FLAG 2064 -2160 0
FLAG 2064 -2112 0
FLAG 2064 -2064 0
FLAG 2064 -2016 0
FLAG 2064 -1968 0
FLAG 2064 -1920 0
FLAG 2064 -1872 0
FLAG 2064 -1824 0
FLAG 2064 -1776 0
FLAG 2064 -1728 0
FLAG 2064 -1680 0
FLAG 2288 -2304 0
FLAG 2288 -2352 0
FLAG 2288 -2400 0
FLAG 2288 -2448 0
FLAG 2288 -2496 0
FLAG 2288 -2544 0
FLAG 2656 -2544 0
FLAG 2656 -2496 0
FLAG 2656 -2448 0
FLAG 2656 -2400 0
FLAG 2656 -2352 0
FLAG 2656 -2304 0
FLAG 2656 -2256 0
FLAG 3200 -2544 0
FLAG 3200 -2496 0
FLAG 3200 -2448 0
FLAG 3200 -2400 0
FLAG 3200 -2352 0
FLAG 3200 -2304 0
FLAG 3200 -2256 0
FLAG 3344 -2544 0
FLAG 3344 -2496 0
FLAG 3696 -2496 0
FLAG 3696 -2448 0
FLAG 3696 -2400 0
FLAG 3696 -2352 0
FLAG 3696 -2304 0
FLAG 3696 -2256 0
FLAG 3696 -2208 0
FLAG 3696 -2144 0
FLAG 3696 -2112 0
FLAG 3696 -2064 0
FLAG 3696 -2016 0
FLAG 3696 -1968 0
FLAG 3936 -2352 0
FLAG 3936 -2544 0
FLAG 3936 -2496 0
FLAG 3936 -2448 0
FLAG 3936 -2400 0
FLAG 3936 -2304 0
FLAG 3936 -2256 0
FLAG 3936 -2208 0
FLAG 3936 -2160 0
FLAG 3936 -2112 0
FLAG 3936 -2048 0
FLAG 3936 -2016 0
FLAG 3936 -1968 0
FLAG 4368 -2256 0
FLAG 4368 -2304 0
FLAG 4368 -2352 0
FLAG 4368 -2400 0
FLAG 4368 -2448 0
FLAG 4368 -2496 0
FLAG 4368 -2544 0
FLAG 4800 -2560 0
FLAG 3712 -2544 0
FLAG 1792 -2064 DGND_1
IOPIN 1792 -2064 In
FLAG 1792 -2016 DGND_2
IOPIN 1792 -2016 In
FLAG 1792 -1968 DGND_3
IOPIN 1792 -1968 In
FLAG 1792 -1920 DGND_4
IOPIN 1792 -1920 In
FLAG 1792 -1872 DGND_5
IOPIN 1792 -1872 In
FLAG 1792 -1824 DGND_6
IOPIN 1792 -1824 In
FLAG 1792 -1776 DGND_7
IOPIN 1792 -1776 In
FLAG 1792 -1728 DGND_8
IOPIN 1792 -1728 In
FLAG 1840 -2064 0
FLAG 1840 -2016 0
FLAG 1840 -1968 0
FLAG 1840 -1920 0
FLAG 1840 -1872 0
FLAG 1840 -1824 0
FLAG 1840 -1776 0
FLAG 1840 -1728 0
FLAG 1392 -2496 0
FLAG 4752 -2496 GND
IOPIN 4752 -2496 In
FLAG 4816 -2496 0
TEXT 1632 -2640 Left 3 ;Power, Ground, Reset
TEXT 2200 -2640 Left 3 ;Digitals Pins
TEXT 2672 -2640 Left 3 ;PWM Output
TEXT 2992 -2640 Left 3 ;1.8 Volt Analog \n       Inputs
TEXT 3344 -2640 Left 3 ;Shared I2C Bus
TEXT 3880 -2640 Left 3 ;Reconfigurable Digital
TEXT 4640 -2648 Left 3 ;5 Volt Input
TEXT 1216 -2432 Left 2 !.tran 1m
LINE Normal 1528 -2644 1528 -1700 2
LINE Normal 1988 -2656 1992 -1696 2
LINE Normal 2580 -2660 2584 -1696 2
LINE Normal 2960 -2676 2968 -1696 2
LINE Normal 3272 -2676 3280 -1696 2
LINE Normal 3628 -2684 3640 -1700 2
LINE Normal 4452 -2684 4460 -1708 2
