Version 4
SHEET 1 7692 680
WIRE 3936 -2112 3824 -2112
WIRE 3936 -2032 3856 -2032
WIRE 3824 -1984 3824 -2112
WIRE 3856 -1984 3856 -2032
WIRE 3840 -1840 3504 -1840
WIRE 3824 -1808 3504 -1808
WIRE 3840 -1808 3840 -1840
WIRE 3824 -1760 3504 -1760
WIRE 3824 -1712 3504 -1712
WIRE 3840 -1680 3840 -1712
WIRE 3840 -1680 2880 -1680
WIRE 2880 -1584 2880 -1680
WIRE 3824 -1568 3504 -1568
WIRE 2768 -1536 2704 -1536
WIRE 3088 -1536 2992 -1536
WIRE 3824 -1520 3504 -1520
WIRE 2704 -1456 2704 -1536
WIRE 3840 -1456 3840 -1472
WIRE 3840 -1456 2704 -1456
WIRE 3824 -1376 3504 -1376
WIRE 3840 -1344 3840 -1376
WIRE 3840 -1344 3504 -1344
WIRE 2880 -816 2880 -1488
WIRE 3840 -816 2880 -816
WIRE 3840 -800 3840 -816
SYMBOL voltage 3936 -2128 R0
SYMATTR InstName V1
SYMATTR Value 5V
SYMBOL Beaglebone 4336 -1456 R0
SYMATTR InstName X1
SYMBOL Levelshifter 2880 -1520 R0
SYMATTR InstName X2
TEXT 2888 -1208 Left 7 !.tran 35
