Version 4
SHEET 1 996 920
WIRE -192 -96 -272 -96
WIRE -144 96 -224 96
WIRE -144 144 -224 144
WIRE 560 144 512 144
WIRE 560 208 512 208
WIRE 560 272 512 272
WIRE 560 336 512 336
WIRE -144 368 -224 368
WIRE -144 416 -224 416
WIRE -176 624 -256 624
FLAG -272 -96 Uin
IOPIN -272 -96 BiDir
FLAG -224 96 3vo
IOPIN -224 96 BiDir
FLAG -224 368 SDA
IOPIN -224 368 BiDir
FLAG -224 416 SCL
IOPIN -224 416 BiDir
FLAG -256 624 RST
IOPIN -256 624 BiDir
FLAG 560 144 PS0
IOPIN 560 144 BiDir
FLAG 560 208 PS1
IOPIN 560 208 BiDir
FLAG 560 272 INT
IOPIN 560 272 BiDir
FLAG 560 336 ADR
IOPIN 560 336 BiDir
FLAG -224 144 GND
IOPIN -224 144 BiDir
TEXT -1056 -160 Left 1 ;I2C Lagesensor:\n \n--> Der I2C Bus verbindet den Beaglebone (Master) und den BNO055\n      Lagesensor (Slave) miteinander.\n--> Beaglebone als Master:\n \n          --> Der Master kann Daten an den Slave senden.\n          --> Der Master kann den Slave auffordern Daten\n                zu Senden.\n          --> In unserem Beispiel fordert der Master den Slave \n                den "roll" - Winkel zurückzugeben.\n \n--> Die besonderheit beim I2C ist das nur 2 Leitungen genutzt werden:\n \n       --> SDA Leitung:\n                 --> "serial data": Übertragung von namengebenden Daten\n                 --> Die Datenübertragung verläuft bidirektional\n \n      --> SCL Leitung: \n                 --> "serial clock": Angeben des Taktimpuls.\n                 --> Da alle den Bustakt gemeinsam nutzen, \n                       handelt es sich um einen synconen Bustakt\n \n--> Bei der Datenübertragung wird ein vordefinierter Protokoll (19 Bit) befolgt:\n \n      --> Start- Condition: Alle Slaves werden hellhörig.\n \n      --> Adresse: Master sendet die Adresse des Slaves, mit dem der Master\n                            kommunitzieren möchte.\n      --> write / read:\n                --> write: Master sendet Daten an Slave\n                --> read: Slave erhält Daten vom Master \n \n      --> Acknowlege: Senden eines 1Bit um den Eingang der Daten zu bestätigen.\n \n      --> Datenpakete: Senden des 1Byte Datenpaket und eines Acknowlege-Bit\n                                   um beliebig viele weitere Datenpakete folgen zu lassen.\n \n      --> Stop-Condition: Ende der Kommunikation, dabei gehen die SDA sowie die\n                                      SCL Leitung auf HIGH.\n \nQuelle: http://fmh-studios.de/theorie/informationstechnik/i2c-bus/
TEXT -328 152 VLeft 0 ;3.3V Versorgung
TEXT -328 408 VLeft 0 ;I2C Leitung
LINE Normal 992 240 -352 -192
LINE Normal 992 240 992 240 2
LINE Normal -352 704 992 240
LINE Normal -320 48 -304 48
LINE Normal -320 176 -320 48
LINE Normal -304 176 -320 176
LINE Normal -320 320 -304 320
LINE Normal -320 448 -320 320
LINE Normal -304 448 -320 448
LINE Normal -304 448 -304 448 2
RECTANGLE Normal -352 704 -1072 -192
