Version 4
SHEET 1 1580 1692
FLAG 256 16 pwr_blau
IOPIN 256 16 BiDir
FLAG 256 64 pwr_gruen
IOPIN 256 64 BiDir
FLAG 256 112 pwr_gelb
IOPIN 256 112 BiDir
FLAG 256 208 Akku_schwarz
IOPIN 256 208 BiDir
FLAG 256 256 Akku_rot
IOPIN 256 256 BiDir
FLAG 256 352 Griff_rot
IOPIN 256 352 BiDir
FLAG 256 400 Griff_schwarz
IOPIN 256 400 BiDir
FLAG 256 448 Griff_blau
IOPIN 256 448 BiDir
FLAG 256 528 LBremse_schwarz
IOPIN 256 528 BiDir
FLAG 256 576 LBremse_gelb
IOPIN 256 576 BiDir
FLAG 256 656 RBremse_schwarz
IOPIN 256 656 BiDir
FLAG 256 704 RBremse_gelb
IOPIN 256 704 BiDir
FLAG 256 784 Kurbel_braun
IOPIN 256 784 BiDir
FLAG 256 832 Kurbel_schwarz
IOPIN 256 832 BiDir
FLAG 256 880 Kurbel_gelb
IOPIN 256 880 BiDir
FLAG 256 976 Nabe_schwarz
IOPIN 256 976 BiDir
FLAG 256 1024 Nabe_rot
IOPIN 256 1024 BiDir
FLAG 256 1072 Nabe_blau
IOPIN 256 1072 BiDir
FLAG 256 1168 Nabe_gelb
IOPIN 256 1168 BiDir
FLAG 256 1120 Nabe_gruen
IOPIN 256 1120 BiDir
FLAG 256 1280 LCD_gelb
IOPIN 256 1280 BiDir
FLAG 256 1328 LCD_gruen
IOPIN 256 1328 BiDir
FLAG 256 1376 LCD_schwarz
IOPIN 256 1376 BiDir
FLAG 256 1424 LCD_blau
IOPIN 256 1424 BiDir
FLAG 256 1472 LCD_rot
IOPIN 256 1472 BiDir
FLAG 256 1584 Licht_schwarz
IOPIN 256 1584 BiDir
FLAG 256 1632 Licht_rot
IOPIN 256 1632 BiDir
TEXT 440 64 Left 2 ;gelbes Kaestchen\n(Motorkabel)
TEXT 528 240 Left 2 ;gelber Stecker (Batteriekabel)
TEXT 528 400 Left 2 ;Gasgriff (blau ist Signal)
TEXT 568 560 Left 2 ;Bremse links
TEXT 568 688 Left 2 ;Bremse rechts
TEXT 568 832 Left 2 ;PAS Sensor (wahrscheinlich Kurbelsensor, gelb ist Signal)
TEXT 544 1064 Left 2 ;weiﬂer Stecker mit Nase\n(weiss ist hall sensor fuer interne Geschwindigkeitsmessung wenn vorhanden)
TEXT 480 1368 Left 2 ;LCD Control-Panel Verbindung\nweisser Stecker (rot auch auf rosa)
TEXT 472 1608 Left 2 ;Fahrlicht (max 2W, max 50mA, 36V oder 48V je nach Batterie)
