Version 4
SHEET 1 896 680
WIRE 208 48 96 48
WIRE 208 96 96 96
WIRE 208 192 96 192
WIRE 704 208 576 208
WIRE 320 240 96 240
WIRE 208 288 96 288
WIRE 208 336 96 336
WIRE 0 0 0 0
FLAG 96 48 schwarz
IOPIN 96 48 BiDir
FLAG 96 96 rot
IOPIN 96 96 BiDir
FLAG 96 192 braun
IOPIN 96 192 BiDir
FLAG 96 240 gruen
IOPIN 96 240 BiDir
FLAG 96 288 blau
IOPIN 96 288 BiDir
FLAG 96 336 violett
IOPIN 96 336 BiDir
FLAG 704 208 Drehwinkel
IOPIN 704 208 BiDir
TEXT -592 56 Left 2 ;EMG49 Motor:\n \n--> Der EMG49 wird vom MD49 \n     mittels einem Hallsensor gesteuert.\n \n--> Der Hallsensor akzeptiert Spannungen \n      zwischen 3.5V und 20V.\n \n--> Quelle: https:/www.robot-electronics\n      .co.uk/htm/emg49.htm
TEXT -56 112 VLeft 0 ;24V Versorgung
TEXT -56 296 VLeft 0 ;Hallsensor (IN)
LINE Normal -48 16 -32 16
LINE Normal -48 128 -48 16
LINE Normal -32 128 -48 128
LINE Normal -48 144 -32 144
LINE Normal -48 368 -48 144
LINE Normal -32 368 -48 368
RECTANGLE Normal -80 416 -624 0
RECTANGLE Normal 880 416 -624 0
