Version 4
SHEET 1 1464 680
WIRE 832 -592 624 -592
WIRE 832 -560 736 -560
WIRE 624 -528 624 -592
WIRE 624 -384 624 -448
WIRE 736 -384 736 -560
WIRE 736 -384 624 -384
FLAG 624 -384 0
SYMBOL Fahrradakku24V104daAh 880 -576 R0
SYMATTR InstName X2
SYMBOL res 608 -544 R0
SYMATTR InstName R1
SYMATTR Value 24
TEXT 656 -360 Left 2 !.tran 29000
TEXT 600 -672 Left 2 ;Entladen mit konstantem Entladestrom:
