Version 4
SHEET 1 880 680
WIRE 0 128 -48 128
WIRE 368 128 336 128
WIRE 448 128 384 128
WIRE 0 160 -48 160
WIRE 384 160 384 128
WIRE 384 160 336 160
WIRE 368 208 368 128
WIRE 400 208 368 208
WIRE 448 208 400 208
WIRE 400 256 400 208
FLAG 400 256 0
SYMBOL RDS33 160 144 R0
SYMATTR InstName X1
SYMBOL voltage 448 112 R0
WINDOW 123 0 0 Left 0
WINDOW 39 0 0 Left 0
SYMATTR InstName V1
SYMATTR Value 12
TEXT 80 32 Left 2 !.op
